%%%%%%%%%%%%%%%%%%%%%%%%%%%%%%%%%%%%%%%%%%%%%%%%%%%%%%%%%%%%%%%%%%%%%%%%%%%%%%%%
%                                                                              %
% SU2 configuration file                                                       %
% Case description: _________________________________________________________  %
% Author: Jan Rottmayer                                                        %
% Institution: RPTU Kaiserlsautern-Landau                                      %
% Date: 29.03.2023                                                             %
% File Version 7.5.1 "Blackbird"                                               %
%                                                                              %
%%%%%%%%%%%%%%%%%%%%%%%%%%%%%%%%%%%%%%%%%%%%%%%%%%%%%%%%%%%%%%%%%%%%%%%%%%%%%%%%
MATH_PROBLEM= DIRECT
RESTART_SOL= NO
% -------------------- COMPRESSIBLE FREE-STREAM DEFINITION --------------------%
MACH_NUMBER= 0.8
INIT_OPTION= REYNOLDS
FREESTREAM_OPTION= TEMPERATURE_FS
FREESTREAM_PRESSURE= 101325.0
FREESTREAM_TEMPERATURE= 288.15
% ---- IDEAL GAS, POLYTROPIC, VAN DER WAALS AND PENG ROBINSON CONSTANTS -------%
FLUID_MODEL= STANDARD_AIR
% ------------- COMMON PARAMETERS DEFINING THE NUMERICAL METHOD ---------------%
NUM_METHOD_GRAD= GREEN_GAUSS
CFL_NUMBER= 10.0
CFL_ADAPT= NO
CFL_ADAPT_PARAM= ( 1.5, 0.5, 1.0, 100.0 )
RK_ALPHA_COEFF= ( 0.66667, 0.66667, 1.000000 )
ITER= 1000
% ------------------------ LINEAR SOLVER DEFINITION ---------------------------%
LINEAR_SOLVER= FGMRES
LINEAR_SOLVER_PREC= LU_SGS
LINEAR_SOLVER_ERROR= 1E-4
LINEAR_SOLVER_ITER= 2
% -------------------------- MULTIGRID PARAMETERS -----------------------------%
MGLEVEL= 2
MGCYCLE= V_CYCLE
MG_PRE_SMOOTH= ( 1, 2, 3, 3 )
MG_POST_SMOOTH= ( 0, 0, 0, 0 )
MG_CORRECTION_SMOOTH= ( 0, 0, 0, 0 )
MG_DAMP_RESTRICTION= 1.0
MG_DAMP_PROLONGATION= 1.0
% --------------------- FLOW NUMERICAL METHOD DEFINITION ----------------------%
CONV_NUM_METHOD_FLOW= JST
SLOPE_LIMITER_FLOW= VENKATAKRISHNAN
JST_SENSOR_COEFF= ( 0.5, 0.02 )
TIME_DISCRE_FLOW= EULER_IMPLICIT
% ---------------- ADJOINT-FLOW NUMERICAL METHOD DEFINITION -------------------%
CONV_NUM_METHOD_ADJFLOW= JST
SLOPE_LIMITER_ADJFLOW= VENKATAKRISHNAN
ADJ_JST_SENSOR_COEFF= ( 0.5, 0.02 )
TIME_DISCRE_ADJFLOW= EULER_IMPLICIT
CFL_REDUCTION_ADJFLOW= 0.8
LIMIT_ADJFLOW= 1E6
% ------------------------ GRID DEFORMATION PARAMETERS ------------------------%
DEFORM_LINEAR_SOLVER_ITER= 500
DEFORM_NONLINEAR_ITER= 1
DEFORM_CONSOLE_OUTPUT= YES
DEFORM_LINEAR_SOLVER_ERROR= 1E-14
% --------------------------- CONVERGENCE PARAMETERS --------------------------%
CONV_RESIDUAL_MINVAL= -12
CONV_STARTITER= 25
CONV_CAUCHY_ELEMS= 100
CONV_CAUCHY_EPS= 1E-10
% ------------------------- INPUT/OUTPUT INFORMATION --------------------------%
MESH_FORMAT= SU2
MESH_OUT_FILENAME= mesh_out.su2
SOLUTION_FILENAME= solution_flow.dat
SOLUTION_ADJ_FILENAME= solution_adj.dat
TABULAR_FORMAT= CSV
CONV_FILENAME= history
RESTART_FILENAME= restart_flow.dat
RESTART_ADJ_FILENAME= restart_adj.dat
VOLUME_FILENAME= flow
VOLUME_ADJ_FILENAME= adjoint
GRAD_OBJFUNC_FILENAME= of_grad.dat
SURFACE_FILENAME= surface_flow
SURFACE_ADJ_FILENAME= surface_adjoint
SCREEN_OUTPUT= (INNER_ITER, RMS_DENSITY, RMS_ENERGY, LIFT, DRAG)
OUTPUT_FILES = (RESTART, PARAVIEW)
SCREEN_WRT_FREQ_INNER= 100
OUTPUT_WRT_FREQ= 100
% -------------------- COMPRESSIBLE FREE-STREAM DEFINITION --------------------%
AOA= 1.25
SIDESLIP_ANGLE= 0.0
% ---------------------- REFERENCE VALUE DEFINITION ---------------------------%
REF_ORIGIN_MOMENT_X = 0.25
REF_ORIGIN_MOMENT_Y = 0.00
REF_ORIGIN_MOMENT_Z = 0.00
REF_LENGTH= 1.0
REF_AREA= 1.0
REF_DIMENSIONALIZATION= FREESTREAM_PRESS_EQ_ONE

% ----------------------- BOUNDARY CONDITION DEFINITION -----------------------%
MARKER_EULER= ( airfoil )

% ------------------------ SURFACES IDENTIFICATION ----------------------------%
MARKER_PLOTTING= ( airfoil )
MARKER_MONITORING= ( airfoil )
% ----------------------- BOUNDARY CONDITION DEFINITION -----------------------%
MARKER_FAR= ( farfield, inlet )
% ----------------------- GEOMETRY EVALUATION PARAMETERS ----------------------%
GEO_MARKER= ( airfoil )
GEO_DESCRIPTION= AIRFOIL
GEO_MODE= FUNCTION
% ----------------------- DESIGN VARIABLE PARAMETERS --------------------------%
DV_KIND= HICKS_HENNE
DV_MARKER= ( airfoil )
DV_PARAM= ( 1, 0.5 )
DV_VALUE= 1
% ------------------------ GRID DEFORMATION PARAMETERS ------------------------%
DEFORM_STIFFNESS_TYPE= INVERSE_VOLUME
% --------------------- OPTIMAL SHAPE DESIGN DEFINITION -----------------------%
OPT_BOUND_UPPER= 5E-6
OPT_BOUND_LOWER= -5E-6
OPT_ACCURACY= 1E-10
OPT_RELAX_FACTOR= 1E3
OPT_GRADIENT_FACTOR= 1E-6
OPT_ITERATIONS= 100
DEFINITION_DV= ( 30, 1.0 | airfoil | 0, 0.05 ); ( 30, 1.0 | airfoil | 0, 0.15 ); ( 30, 1.0 | airfoil | 0, 0.25 ); ( 30, 1.0 | airfoil | 0, 0.35 ); ( 30, 1.0 | airfoil | 0, 0.45 ); ( 30, 1.0 | airfoil | 0, 0.55 ); ( 30, 1.0 | airfoil | 0, 0.65 ); ( 30, 1.0 | airfoil | 0, 0.75 ); ( 30, 1.0 | airfoil | 0, 0.85 ); ( 30, 1.0 | airfoil | 0, 0.95 ); ( 30, 1.0 | airfoil | 1, 0.05 );  ( 30, 1.0 | airfoil |

SOLVER= EULER

OPT_OBJECTIVE= DRAG * 1.0
OPT_CONSTRAINT= (LIFT > 0.2573) * 1.0; ( AIRFOIL_THICKNESS  > 0.12 ) * 1.0


MESH_FILENAME= mesh_NACA0012_inv.su2
